Circuit: * C:\Users\48727\Desktop\Arduino_train\First_project\Led_fun\Draft1.asc

Direct Newton iteration for .op point succeeded.

Date: Thu Feb 24 21:05:05 2022
Total elapsed time: 0.114 seconds.

tnom = 27
temp = 27
method = modified trap
totiter = 2091
traniter = 2086
tranpoints = 1044
accept = 1044
rejected = 0
matrix size = 7
fillins = 0
solver = Normal
Matrix Compiler1: 348 bytes object code size  0.1/0.1/[0.1]
Matrix Compiler2: off  [0.1]/0.1/0.1

